  Page 1                                    Fri Jul 27 10:56:33 2018

  ******************************************************************
  *                           E P A N E T                          *
  *                   Hydraulic and Water Quality                  *
  *                   Analysis for Pipe Networks                   *
  *                         Version 2.1                            *
  ******************************************************************
  
  Analysis begun Fri Jul 27 10:56:33 2018

  Analysis ended Fri Jul 27 10:56:33 2018
