  Page 1                                    Fri Apr 17 14:14:03 2020

  ******************************************************************
  *                           E P A N E T                          *
  *                   Hydraulic and Water Quality                  *
  *                   Analysis for Pipe Networks                   *
  *                         Version 2.2                            *
  ******************************************************************
  
  Analysis begun Fri Apr 17 14:14:03 2020

  Analysis ended Fri Apr 17 14:16:30 2020
