  Page 1                                    Wed Jan 31 16:19:22 2018

  ******************************************************************
  *                           E P A N E T                          *
  *                   Hydraulic and Water Quality                  *
  *                   Analysis for Pipe Networks                   *
  *                         Version 2.1                            *
  ******************************************************************
  
  Analysis begun Wed Jan 31 16:19:22 2018

  Analysis ended Wed Jan 31 16:19:22 2018
