  Page 1                                    Mon Oct 19 22:19:15 2020

  ******************************************************************
  *                           E P A N E T                          *
  *                   Hydraulic and Water Quality                  *
  *                   Analysis for Pipe Networks                   *
  *                         Version 2.2                            *
  ******************************************************************
  
  Analysis begun Mon Oct 19 22:19:15 2020

  Analysis ended Mon Oct 19 22:19:15 2020
