  Page 1                                    Tue Oct 10 15:52:00 2017

  ******************************************************************
  *                           E P A N E T                          *
  *                   Hydraulic and Water Quality                  *
  *                   Analysis for Pipe Networks                   *
  *                         Version 2.1                            *
  ******************************************************************
  
  Analysis begun Tue Oct 10 15:52:00 2017

  Analysis ended Tue Oct 10 15:52:00 2017
