  Page 1                                    Mon Oct 30 21:56:30 2023

  ******************************************************************
  *                           E P A N E T                          *
  *                   Hydraulic and Water Quality                  *
  *                   Analysis for Pipe Networks                   *
  *                         Version 2.2                            *
  ******************************************************************
  
  Analysis begun Mon Oct 30 21:56:30 2023

  Analysis ended Mon Oct 30 21:56:30 2023
