  Page 1                                    Mon Dec 16 11:27:55 2024

  ******************************************************************
  *                           E P A N E T                          *
  *                   Hydraulic and Water Quality                  *
  *                   Analysis for Pipe Networks                   *
  *                         Version 2.2                            *
  ******************************************************************
  
  Analysis begun Mon Dec 16 11:27:55 2024

  Analysis ended Mon Dec 16 11:27:55 2024
