  Page 1                                    Tue Nov  3 22:03:38 2020

  ******************************************************************
  *                           E P A N E T                          *
  *                   Hydraulic and Water Quality                  *
  *                   Analysis for Pipe Networks                   *
  *                         Version 2.2                            *
  ******************************************************************
  
  Analysis begun Tue Nov  3 22:03:38 2020

  Analysis ended Tue Nov  3 22:03:38 2020
