  Page 1                                    Fri Nov  3 20:35:17 2023

  ******************************************************************
  *                           E P A N E T                          *
  *                   Hydraulic and Water Quality                  *
  *                   Analysis for Pipe Networks                   *
  *                         Version 2.2                            *
  ******************************************************************
  
  Analysis begun Fri Nov  3 20:35:17 2023

  Analysis ended Fri Nov  3 20:35:17 2023
